97

C 7.182 -0.245 -4.759
C 5.745 -0.357 -4.349
C 5.344 0.081 -3.129
C 3.927 -0.053 -2.700
C 3.069 -0.633 -3.544
C 3.501 -1.118 -4.849
C 4.764 -1.013 -5.264
C 2.317 -1.683 -5.486
C 2.145 -2.275 -6.669
C 0.780 -2.763 -7.002
C -0.237 -2.611 -6.126
C -0.013 -1.947 -4.814
C 1.220 -1.508 -4.540
N 1.670 -0.857 -3.347
C 0.903 -0.560 -2.170
C 0.053 0.485 -2.155
C -0.687 0.825 -0.916
C -0.509 0.085 0.201
C 0.419 -1.083 0.181
C 1.085 -1.386 -0.950
C 1.984 -2.515 -0.989
N 2.705 -3.419 -1.022
N 0.618 -1.872 1.367
C 1.199 -1.382 2.582
C 2.126 -0.426 2.702
C 2.570 -0.052 4.071
C 2.060 -0.679 5.152
C 1.055 -1.762 4.992
C 0.676 -2.074 3.752
C -0.258 -3.066 3.249
C -1.032 -3.953 3.876
C -1.900 -4.822 3.040
C -1.891 -4.708 1.694
C -1.024 -3.702 1.027
C -0.258 -2.922 1.798
N -1.172 0.457 1.420
C -2.221 -0.263 2.082
C -3.003 -1.218 1.569
C -4.024 -1.838 2.454
C -4.156 -1.437 3.736
C -3.287 -0.362 4.281
C -2.384 0.179 3.461
C -1.389 1.217 3.676
C -1.061 1.915 4.766
C 0.071 2.872 4.656
C 0.746 3.004 3.494
C 0.370 2.194 2.305
C -0.667 1.357 2.416
N -1.550 1.975 -0.908
C -2.943 1.957 -0.567
C -3.806 0.953 -0.757
C -5.213 1.146 -0.314
C -5.602 2.314 0.243
C -4.633 3.428 0.417
C -3.377 3.222 0.014
C -2.208 4.083 0.020
C -2.034 5.333 0.453
C -0.676 5.923 0.321
C 0.333 5.208 -0.222
C 0.105 3.814 -0.690
C -1.122 3.298 -0.554
C -0.124 1.307 -3.330
N -0.265 1.965 -4.271
H 7.273 -0.263 -5.867
H 7.620 0.709 -4.392
H 7.754 -1.097 -4.337
H 6.054 0.537 -2.450
H 3.605 0.310 -1.732
H 5.063 -1.385 -6.235
H 2.968 -2.402 -7.360
H 0.605 -3.247 -7.953
H -1.226 -2.972 -6.378
H -0.824 -1.826 -4.107
H 2.529 0.076 1.833
H 3.301 0.736 4.198
H 2.384 -0.395 6.144
H 0.652 -2.281 5.851
H -1.033 -4.034 4.954
H -2.539 -5.552 3.516
H -2.528 -5.346 1.095
H -1.029 -3.594 -0.050
H -2.888 -1.547 0.546
H -4.659 -2.623 2.065
H -4.897 -1.901 4.374
H -3.388 -0.031 5.306
H -1.592 1.785 5.700
H 0.359 3.460 5.517
H 1.579 3.693 3.428
H 0.942 2.260 1.392
H -3.491 0.027 -1.220
H -5.927 0.342 -0.441
H -6.628 2.443 0.563
H -4.941 4.373 0.848
H -2.849 5.898 0.886
H -0.499 6.936 0.662
H 1.318 5.646 -0.314
H 0.915 3.235 -1.114
