38

C 6.551 0.227 1.110
C 5.186 0.157 0.494
C 4.556 -1.023 0.367
C 3.194 -1.083 -0.204
C 2.573 0.042 -0.591
C 3.255 1.347 -0.427
C 4.489 1.402 0.089
S 0.937 -0.020 -1.244
O 0.776 -1.288 -2.034
O 0.734 1.152 -2.164
C -0.278 0.031 0.034
C 0.066 0.168 1.332
C -0.976 0.208 2.396
C -2.278 0.111 2.082
C -2.643 -0.034 0.664
C -1.717 -0.071 -0.298
N -2.282 -0.208 -1.609
C -3.684 -0.254 -1.373
C -4.665 -0.372 -2.270
C -6.064 -0.393 -1.759
C -6.312 -0.294 -0.433
C -5.190 -0.162 0.537
C -3.952 -0.148 0.042
H 7.064 1.169 0.819
H 7.177 -0.625 0.768
H 6.461 0.194 2.216
H 5.035 -1.942 0.683
H 2.703 -2.044 -0.295
H 2.753 2.262 -0.714
H 4.975 2.362 0.211
H 1.103 0.252 1.627
H -0.679 0.317 3.431
H -3.039 0.141 2.851
H -1.788 -0.251 -2.527
H -4.452 -0.450 -3.328
H -6.885 -0.489 -2.457
H -7.332 -0.310 -0.071
H -5.374 -0.080 1.600
